GEOS-CHEM SIMULATION: Fill in options here for your run
------------------------+------------------------------------------------------
%%% SIMULATION MENU %%% :
Start YYYYMMDD, HHMMSS  : 20140901 000000
End   YYYYMMDD, HHMMSS  : 20160101 000000
Run directory           : ./
Input restart file      : ./restart.20160101
Make new restart file?  : T
Output restart file(s)  : Restart/restart.YYYYMMDD
Root data directory     : /scratch16/smill191/GEOSChem/ExtData/GEOS_4x5/
 => GEOS-FP    subdir   : GEOS_FP/YYYY/MM/
 => MERRA2     subdir   : MERRA2/YYYY/MM/
Land mask file          : /scratch16/smill191/GEOSChem/ExtData/GEOS_4x5/MERRA2/2015/01/MERRA2.20150101.CN.4x5.nc4
Dir w/ 1x1 emissions etc: /scratch16/smill191/GEOSChem/ExtData/GEOS_1x1/
Temporary directory     : ./temp/
OCO2 obs directory      : /scratch4/smill191/OCO2_MIP_inputs/empty
Obs file prefix (ncdf)  : oco2_LtCO2_
Flask obs directory     : /scratch4/smill191/OCO2_MIP_inputs/v11_obs/insitu_obs/
Obs file prefix (ncdf)  : obspack_co2_1_OCO2MIP_v5.0_2024-10-03.
In situ flag (0 or 1)   : 1
Global offsets I0, J0   : 0 0
Emissions file path     : ./fluxes/
Number of time periods  : 487
------------------------+------------------------------------------------------
END OF FILE             :
------------------------+------------------------------------------------------
